Circuit: * F:\Documents\dynamic_micamp\dynamic_micamp_ltspice.asc

Direct Newton iteration for .op point succeeded.

Date: Sun Oct 11 21:09:35 2020
Total elapsed time: 0.093 seconds.

tnom = 27
temp = 27
method = trap
totiter = 17
traniter = 0
tranpoints = 0
accept = 0
rejected = 0
matrix size = 47
fillins = 70
solver = Normal
Matrix Compiler1:     352 opcodes
Matrix Compiler2: 4.80 KB object code size
